case24.m
function mpc = case24_ieee_rts
%CASE24_IEEE_RTS  Power flow data for the IEEE RELIABILITY TEST SYSTEM.
%   Please see CASEFORMAT for details on the case file format.
%
%   This system data is from the IEEE RELIABILITY TEST SYSTEM, see
%
%   IEEE Reliability Test System Task Force of the Applications of
%   Probability Methods Subcommittee, "IEEE reliability test system,"
%   IEEE Transactions on Power Apparatus and Systems, Vol. 98, No. 6,
%   Nov./Dec. 1979, pp. 2047-2054.
%
%   IEEE Reliability Test System Task Force of Applications of
%   Probability Methods Subcommittee, "IEEE reliability test system-96,"
%   IEEE Transactions on Power Systems, Vol. 14, No. 3, Aug. 1999,
%   pp. 1010-1020.
%
%   Cost data is from Web site run by Georgia Tech Power Systems Control
%   and Automation Laboratory:
%
%       http://pscal.ece.gatech.edu/testsys/index.html
%
%   MATPOWER case file data provided by Bruce Wollenberg.

%   MATPOWER
%   $Id: case24_ieee_rts.m,v 1.4 2010/03/10 18:08:13 ray Exp $

%% MATPOWER Case Format : Version 2
mpc.version = '2';

%%-----  Power Flow Data  -----%%
%% system MVA base
mpc.baseMVA = 100;

%% bus data
%	bus_i	type	Pd比例	Qd	Gs	Bs	area	Vm	Va	baseKV	zone	Vmax	Vmin
mpc.bus = [
	1	2	3.8	22	0	0	1	1	0	138	1	1.05	0.95;
	2	2	3.4	20	0	0	1	1	0	138	1	1.05	0.95;
	3	1	6.3	37	0	0	1	1	0	138	1	1.05	0.95;
	4	1	2.6	15	0	0	1	1	0	138	1	1.05	0.95;
	5	1	2.5	14	0	0	1	1	0	138	1	1.05	0.95;
	6	1	4.8	28	0	-100	2	1	0	138	1	1.05	0.95;
	7	2	4.4	25	0	0	2	1	0	138	1	1.05	0.95;
	8	1	6.0	35	0	0	2	1	0	138	1	1.05	0.95;
	9	1	6.1	36	0	0	1	1	0	138	1	1.05	0.95;
	10	1	6.8	40	0	0	2	1	0	138	1	1.05	0.95;
	11	1	0	0	0	0	3	1	0	230	1	1.05	0.95;
	12	1	0	0	0	0	3	1	0	230	1	1.05	0.95;
	13	3	9.3	54	0	0	3	1	0	230	1	1.05	0.95;
	14	2	6.8	39	0	0	3	1	0	230	1	1.05	0.95;
	15	2	11.1	64	0	0	4	1	0	230	1	1.05	0.95;
	16	2	3.5	20	0	0	4	1	0	230	1	1.05	0.95;
	17	1	0	0	0	0	4	1	0	230	1	1.05	0.95;
	18	2	11.7	68	0	0	4	1	0	230	1	1.05	0.95;
	19	1	6.4	37	0	0	3	1	0	230	1	1.05	0.95;
	20	1	4.5	26	0	0	3	1	0	230	1	1.05	0.95;
	21	2	0	0	0	0	4	1	0	230	1	1.05	0.95;
	22	2	0	0	0	0	4	1	0	230	1	1.05	0.95;
	23	2	0	0	0	0	3	1	0	230	1	1.05	0.95;
	24	1	0	0	0	0	4	1	0	230	1	1.05	0.95;
];

%% generator data
%	bus	Pg	Qg	Qmax	Qmin	Vg	mBase	status	Pmax	Pmin	Pc1	Pc2	 Qc1min	Qc1max	MDT	MUT	rd	ru	P0	Z0	apf	%	Unit Code
mpc.gen = [
	15	10	0	10	0	1.035	100	1	12	2.4	0	0	0	0	1	1	0.2	0.2	0	-1	0;	%	U1
    15	10	0	10	0	1.035	100	1	12	2.4	0	0	0	0	1	1	0.2	0.2	0	-1	0;	%	U2
    15	76	0	30	-25	1.035	100	1	12	2.4	0	0	0	0	1	1	0.2	0.2	0	-1	0;	%	U3
    15	76	0	30	-25	1.035	100	1	12	2.4	0	0	0	0	1	1	0.2	0.2	0	-1	0;	%	U4
    15	10	0	10	0	1.035	100	1	12	2.4	0	0	0	0	1	1	0.2	0.2	0	-1	0;	%	U5
    15	10	0	10	0	1.035	100	1	155	54.25	0	0	0	0	3	5	2.5833	2.5833	0	5	0;	%	U6 之前是150	5	0;
     1	76	0	30	-25	1.035	100	1	20	4	0	0	0	0	1	1	0.3333	0.3333	0	-1	0;	%	U7
     1	76	0	30	-25	1.035	100	1	20	4	0	0	0	0	1	1	0.3333	0.3333	0	-1	0;	%	U8
     1	80	0	60	0	1.025	100	1	76	15.2	0	0	0	0	2	3	1.2667	1.2667	0	-3	0;	%U9	
     1	80	0	60	0	1.025	100	1	76	15.2	0	0	0	0	2	3	1.2667	1.2667	0	-3	0;	%	U10
     2	80	0	60	0	1.025	100	1	20	4	0	0	0	0	1	1	0.3333	0.3333	0	-1	0;	%	U11
     2	95.1	0	80	0	1.02	100	1	20	4	0	0	0	0	1	1	0.3333	0.3333	0	-1	0;	%	U12
     2	95.1	0	80	0	1.02	100	1	76	15.2	0	0	0	0	2	3	1.2667	1.2667	0	-3	0;	%	U13
     2	95.1	0	80	0	1.02	100	1	76	15.2	0	0	0	0	2	3	1.2667	1.2667	0	-3	0;	%	U14
     7	0	35.3	200	-50	0.98	100	1	100	25	0	0	0	0	2	4	1.6667	1.6667	0	-3	0;	%	U15
     7	12	0	6	0	1.014	100	1	100	25	0	0	0	0	2	4	1.6667	1.6667	0	-3	0;	%	U16
     7	12	0	6	0	1.014	100	1	100	25	0	0	0	0	2	4	1.6667	1.6667	0	-3	0;	%	U17
    16	12	0	6	0	1.014	100	1	155	54.25	0	0	0	0	3	5	2.5833	2.5833	0	5	0;	%	U18  100	5	0;
    23	12	0	6	0	1.014	100	1	155	54.25	0	0	0	0	3	5	2.5833	2.5833	0	5	0;	%	U19  150	5	0;
    23	12	0	6	0	1.014	100	1	155	54.25	0	0	0	0	3	5	2.5833	2.5833	0	5	0;	%	U20  150	5	0;
    23	155	0	80	-50	1.014	100	1	350	140	0	0	0	0	5	8	5.8333	5.8333	0	10	0;	%U21	350	10	0;
    13	155	0	80	-50	1.017	100	1	197	68.95	0	0	0	0	4	5	3.2833	3.2833	150	-4	0;	%	U22  0	-4	0;	
    13	400	0	200	-50	1.05	100	1	197	68.95	0	0	0	0	4	5	3.2833	3.2833	150	-4	0;	%	U23  0	-4	0;	
    13	400	0	200	-50	1.05	100	1	197	68.95	0	0	0	0	4	5	3.2833	3.2833	150	-4	0;	%	U24  0	-4	0;	
    18	50	0	16	-10	1.05	100	1	400	100	0	0	0	0	5	8	6.6667	6.6667	0	10	0;	%	U25  400	10	0;	
    21	50	0	16	-10	1.05	100	1	400	100	0	0	0	0	5	8	6.6667	6.6667	0	10	0;	%	U26  400	10	0;	
];
   
%% branch data
%	fbus	tbus	r	x	b	Pmax	rateB	rateC	ratio	angle	status	angmin	angmax
mpc.branch = [
	1	2	0.0026	0.014	0.0461	250	250	200	0	0	1	-360	360;
    1	3	0.0546	0.211	0.057	250	208	220	0	0	1	-360	360;
    1	5	0.0218	0.085	0.023	250	208	220	0	0	1	-360	360;
    2	4	0.0328	0.127	0.034	250	208	220	0	0	1	-360	360;
    2	6	0.0497	0.192	0.052	250	208	220	0	0	1	-360	360;
    3	9	0.0308	0.119	0.032	250	208	220	0	0	1	-360	360;
    3	24	0.0023	0.084	0	250	510	600	1.03	0	1	-360	360;
    4	9	0.0268	0.104	0.028	250	208	220	0	0	1	-360	360;
    5	10	0.0228	0.088	0.024	250	208	220	0	0	1	-360	360;
    6	10	0.0139	0.061	2.459	250	193	200	0	0	1	-360	360;
    7	8	0.0159	0.061	0.017	250	208	220	0	0	1	-360	360;
    8	9	0.0427	0.165	0.45	250	208	220	0	0	1	-360	360;
    8	10	0.0427	0.165	0.045	250	208	220	0	0	1	-360	360;
    9	11	0.0023	0.084	0	400	510	600	1.03	0	1	-360	360;
    9	12	0.0023	0.084	0	400	510	600	1.03	0	1	-360	360;
    10	11	0.0023	0.084	0	400	510	600	1.02	0	1	-360	360;
    10	12	0.0023	0.084	0	400	510	600	1.02	0	1	-360	360;
    11	13	0.0061	0.048	0.1	    300	600	625	0	0	1	-360	360;
    11	14	0.0054	0.042	0.088	300	625	625	0	0	1	-360	360;
    12	13	0.0061	0.048	0.1	    300	625	625	0	0	1	-360	360;
    12	13	0.0124	0.097	0.203	120	625	625	0	0	1	-360	360;
    13	23	0.0111	0.087	0.182	500	625	625	0	0	1	-360	360;
    14	16	0.005	0.059	0.082	500	625	625	0	0	1	-360	360;
    15	16	0.0022	0.017	0.036	500	600	625	0	0	1	-360	360;
    15	21	0.0032	0.049	0.206	500	600	625	0	0	1	-360	360;
    15	21	0.0032	0.049	0.206	500	600	625	0	0	1	-360	360;
    15	24	0.0032	0.052	0.206	500	600	625	0	0	1	-360	360;
    16	17	0.0033	0.026	0.055	500	600	625	0	0	1	-360	360;
    16	19	0.003	0.023	0.049	500	600	625	0	0	1	-360	360;
    17	18	0.0018	0.014	0.3	    500	600	625	0	0	1	-360	360;
    17	22	0.0135	0.105	0.0221	500	600	625	0	0	1	-360	360;
    18	21	0.0016	0.026	0.11	500	600	625	0	0	1	-360	360;
    18	21	0.0016	0.026	0.11	500	600	625	0	0	1	-360	360;
    19	20	0.0026	0.04	0.166	500	600	625	0	0	1	-360	360;
    19	20	0.0026	0.04	0.166	500	600	625	0	0	1	-360	360;
    20	23	0.0014	0.022	0.092	500	600	625	0	0	1	-360	360;
    20	23	0.0014	0.022	0.092	500	600	625	0	0	1	-360	360;
    21	22	0.0087	0.068	0.142	500	600	625	0	0	1	-360	360;
];

%%-----  OPF Data  -----%%
%% area data
%	area	refbus
mpc.areas = [
	1	1;
	2	3;
	3	8;
	4	6;
];

%% generator cost data
%	1	startup	shutdown	n	x1  a  b  c  B  t  K
%	2	startup	shutdown	n	c0  a  b  c  B  t  K
mpc.gencost = [	%   二次系数a 一次系数b 常数项c  最小开 最小关 初始状态 UH DH 向上爬坡（MW/min） 向下爬坡（MW/min） 启动时间 启动系数1 2 3 ER排放率 FC机组燃料成本							
	2	1500	0	3	0.02533	25.5472	24.3891  0	0	-1  0	0	0.8	    1.00	0	10 10 1 0.10 2.3;	%	15					SynCond
	2	1500	0	3	0.02649	25.6753	24.4110  0	0	-1  0	0	0.8	    1.00	0	10 10 1 0.01 2.3;		%	15	2.4	12	0	6	U12
	2	1500	0	3	0.02801	25.8027	24.6382  0	0	-1  0	0	0.8	    1.00	0	10 10 1 0.10 2.3;	%	15	2.4	12	0	6	U12
	2	1500	0	3	0.02842	25.9318	24.7605  0	0	-1  0	0	0.8	    1.00	0	10 10 1 0.10 2.3;	%	15	2.4	12	0	6	U12
	2	1500	0	3	0.02855	26.0611	24.8882  0	0	-1  0	0	0.8  	1.00	0	10 10 1 0.10 2.3;	%	15	2.4	12	0	6	U12
	2	1500	0	3	0.00463	10.6940	142.7348 5	3	 5  3	2	0.917	1.300	5	150 150 6 1.14 1.2;	%	15	2.4	12	0	6	U12
    2	1500	0	3	0.01199	37.5510	117.7511 0	0	-1  1	0	0.508	1.167	1	20 20 2 0.25 3.0;	%	1	16	20	0	10	U20%1
	2	1500	0	3	0.01261	37.6637	118.1083 0	0	-1  1	0	0.508	1.167	1	20 20 2 0.25 3.0;	%	1	16	20	0	10	U20
	2	1500	0	3	0.00876	13.3272	81.1364  3	2	3   2	1	0.642	1.333	3	50 50 3 0.93 1.2;	%	1	15.2	76	-25	30	U76
	2	1500	0	3	0.00895	13.3538	81.2980  3	2	3   2	1	0.642	1.333	3	50 50 3 0.95 1.2;	%	1	15.2	76	-25	30	U76
	2	1500	0	3	0.01359	37.7770	118.4576 0	0	-1  1	0	0.508	1.167	1	20 20 2 0.25 3.0;	%	2	16	20	0	10	U20
	2	1500	0	3	0.01433	37.8896	118.8206 0	0	-1  1	0	0.508	1.167	1	20 20 2 0.25 3.0;%	2	16	20	0	10	U20
	2	1500	0	3	0.00910	13.3805	81.4641  3	2	3   2	1	0.642	1.333	3	50 50 3 0.93 1.2;	%	2	15.2	76	-25	30	U76
	2	1500	0	3	0.00932	13.4073	81.6259  3	2	3   2	1	0.642	1.333	3	50 50 3 0.90 1.2;	%	2	15.2	76	-25	30	U76
	2	1500	0	3	0.00623	18	    217.8952 4	2	-3  2	2	0.850	1.233	3	70 70 4 0.2 2.3;	%	7	25	100	0	60	U100
	2	1500	0	3	0.00612	18.1	218.3350 4	2	-3  2	2	0.850	1.233	3	70 70 4 0.2 2.3;	%	7	25	100	0	60	U100
	2	1500	0	3	0.00598	18.2	218.7752 4	2	-3  2	2	0.850	1.233	3	70 70 4 0.2 2.3;	%	7	25	100	0	60	U100
    2	1500	0	3	0.00473	10.7154	143.0288 5	3	5   3	2	0.917	1.300	5	150 150 6 1.15 1.2;	%	16	54.3	155	-50	80	U155
    2	1500	0	3	0.00481	10.7367	143.3179 5	3	5   3	2	0.917	1.300	5	150 150 6 1.14 1.2;	%	23	100	400	-50	200	U400
	2	1500	0	3	0.00487	10.7583	142.5972 5	3	5   3	2	0.917	1.300	5	150 150 6 1.14 1.2;	%	23	10	50	-10	16	U50
	2	1500	0	3	0.00153	10.8616	177.0575 8	5	10  5	3	1.167	2	    6	300 200 8 1.2 1.2;	%	23	10	50	-10	16	U50
    2	1500	0	3	0.00259	23	    259.1310 5	4	-4  4	2	0.917	1.650	6	200 200 8 0.2 2.3;	%	13	69	197	0	80	U197
	2	1500	0	3	0.00260	23.1    259.6490 5	4	-4  4	2	0.917	1.650	6	200 200 8 0.2 2.3;	%	13	69	197	0	80	U197
	2	1500	0	3	0.00263	23.2    260.1760 5	4	-4  4	2	0.917	1.650	6	200 200 8 0.2 2.3;	%	13	69	197	0	80	U197
    2	1500	0	3	0.00194	7.4921	310.0021 8	5	10  8	4	0.842	1.667	8	500 500 10 0 0.6;	%	18	54.3	155	-50	80	U155
	2	1500	0	3	0.00195	7.5031	311.9102 8	5	10  8	4	0.842	1.667	8	500 500 10 0 0.6;	%	21	100	400	-50	200	U400
];
